[TITLE]
;;Project Title/Notes
SWMM_Project

[OPTIONS]
;;Option             Value
FLOW_UNITS           LPS
INFILTRATION         MODIFIED_GREEN_AMPT
FLOW_ROUTING         DYNWAVE
LINK_OFFSETS         DEPTH
MIN_SLOPE            0
ALLOW_PONDING        NO
SKIP_STEADY_STATE    NO

START_DATE           09/24/2020
START_TIME           00:00:00
REPORT_START_DATE    09/24/2020
REPORT_START_TIME    00:00:00
END_DATE             09/24/2020
END_TIME             23:55:00
SWEEP_START          01/01
SWEEP_END            12/31
DRY_DAYS             0
REPORT_STEP          00:05:00
WET_STEP             00:05:00
DRY_STEP             01:00:00
ROUTING_STEP         0:00:30 
RULE_STEP            00:00:00

INERTIAL_DAMPING     PARTIAL
NORMAL_FLOW_LIMITED  BOTH
FORCE_MAIN_EQUATION  H-W
VARIABLE_STEP        0.75
LENGTHENING_STEP     0
MIN_SURFAREA         1.167
MAX_TRIALS           8
HEAD_TOLERANCE       0.0015
SYS_FLOW_TOL         5
LAT_FLOW_TOL         5
MINIMUM_STEP         0.5
THREADS              1

[EVAPORATION]
;;Data Source    Parameters
;;-------------- ----------------
CONSTANT         0.0
DRY_ONLY         NO

[RAINGAGES]
;;Name           Format    Interval SCF      Source    
;;-------------- --------- ------ ------ ----------
;DESCRIPTION
TS               INTENSITY 0:05     0        TIMESERIES Gauge1          

[SUBCATCHMENTS]
;;Name           Rain Gage        Outlet           Area     %Imperv  Width    %Slope   CurbLen  SnowPack        
;;-------------- ---------------- ---------------- -------- -------- -------- -------- -------- ----------------
SubCatch_128     TS               54190            2.8      56.2     975.79   23.66    0                        
SubCatch_129     TS               76883            4.96     78.7     1784.16  14.32    0                        
SubCatch_131     TS               54509            1.87     78.5     621.64   9.06     0                        
SubCatch_132     TS               54208            1.79     84.7     255.86   7.7      0                        
SubCatch_133     TS               138789           5.31     82.0     1837.25  12.09    0                        
SubCatch_149     TS               90194            2.95     69.6     956.13   15.92    0                        
SubCatch_157     TS               91925            0.94     81.1     324.44   13.32    0                        
SubCatch_162     TS               SubCatch_204     3.51     90.3     300.41   8.54     0                        
SubCatch_168     TS               54919            4.93     88.6     598.69   6.69     0                        
SubCatch_170     TS               54737            1.03     87.9     561.96   6.22     0                        
SubCatch_176     TS               54229            6.68     92.4     829.96   13.14    0                        
SubCatch_180     TS               100605           4.1      54.0     1321.51  18.63    0                        
SubCatch_184     TS               65110            4.25     86.5     1445.42  20.68    0                        
SubCatch_186     TS               54663            2.84     80.5     693.8    17.77    0                        
SubCatch_202     TS               SubCatch_186     3.76     83.1     436.29   13.17    0                        
SubCatch_204     TS               SubCatch_217     3.63     92.1     238.41   4.08     0                        
SubCatch_213     TS               65205            2.78     79.2     768.4    17.59    0                        
SubCatch_214     TS               86811            3.13     81.7     468.41   12.84    0                        
SubCatch_217     TS               55027            2.89     89.8     880.55   4.64     0                        
SubCatch_222     TS               65144            2.59     91.6     564.2    13.75    0                        
SubCatch_227     TS               SubCatch_285     2.93     92.9     908.93   6.32     0                        
SubCatch_231     TS               SubCatch_285     1.81     98.2     372.8    5.84     0                        
SubCatch_245     TS               65153            2.08     70.8     768.61   8.82     0                        
SubCatch_246     TS               91924            7.92     70.4     1139.19  12.7     0                        
SubCatch_262     TS               80434            2.95     31.8     1676.28  8.26     0                        
SubCatch_268     TS               88104            4.0      76.3     1176.61  7.58     0                        
SubCatch_269     TS               SubCatch_149     2.91     93.1     1071.79  19.51    0                        
SubCatch_273     TS               54961            2.49     92.5     915.84   8.59     0                        
SubCatch_277     TS               80434            4.0      78.3     994.49   7.39     0                        
SubCatch_284     TS               65178            1.32     62.8     441.28   5.82     0                        
SubCatch_285     TS               54948            1.46     86.2     203.19   7.91     0                        
SubCatch_289     TS               65195            5.6      70.2     1840.42  8.73     0                        
SubCatch_296     TS               77924            2.0      57.4     652.64   6.14     0                        
SubCatch_297     TS               78189            1.08     74.7     257.3    9.22     0                        
SubCatch_298     TS               78454            1.28     95.6     441.35   11.33    0                        
SubCatch_308     TS               54701            2.56     96.9     805.23   8.34     0                        
SubCatch_319     TS               77930            4.64     97.8     733.71   4.22     0                        
SubCatch_320     TS               SubCatch_298     1.71     88.4     453.08   12.34    0                        
SubCatch_328     TS               55821            2.45     90.7     618.97   7.82     0                        
SubCatch_329     TS               54695            6.56     93.1     782.32   6.06     0                        
SubCatch_332     TS               80681            2.51     74.5     735.44   9.47     0                        
SubCatch_334     TS               64763            3.18     61.2     1334.34  6.1      0                        
SubCatch_335     TS               54706            4.94     91.7     1486.45  6.09     0                        
SubCatch_342     TS               56343            1.97     82.5     727.09   4.36     0                        
SubCatch_347     TS               55808            2.24     87.9     525.74   7.31     0                        
SubCatch_350     TS               56267            4.45     92.5     1066.33  9.32     0                        
SubCatch_355     TS               56471            3.49     78.3     1034.84  10.09    0                        
SubCatch_356     TS               55930            4.01     98.3     347.66   3.76     0                        
SubCatch_368     TS               56307            2.6      73.4     591.58   10.73    0                        
SubCatch_375     TS               55769            3.56     80.9     663.9    8.67     0                        
SubCatch_382     TS               64734            4.2      68.3     1733.68  8.03     0                        
SubCatch_399     TS               55909            7.88     75.7     1410.04  6.88     0                        
SubCatch_400     TS               93766            5.16     78.5     1823.3   7.59     0                        
SubCatch_402     TS               56412            3.41     74.4     1823.2   9.35     0                        
SubCatch_414     TS               64562            4.96     69.3     1384.56  11.81    0                        
SubCatch_421     TS               SubCatch_375     5.34     58.3     1090.42  8.04     0                        

[SUBAREAS]
;;Subcatchment   N-Imperv   N-Perv     S-Imperv   S-Perv     PctZero    RouteTo    PctRouted 
;;-------------- ---------- ---------- ---------- ---------- ---------- ---------- ----------
SubCatch_128     0.015      0.24       2.54       7.62       25         OUTLET    
SubCatch_129     0.015      0.24       2.54       7.62       25         OUTLET    
SubCatch_131     0.015      0.24       2.54       7.62       25         OUTLET    
SubCatch_132     0.015      0.24       2.54       7.62       25         OUTLET    
SubCatch_133     0.015      0.24       2.54       7.62       25         OUTLET    
SubCatch_149     0.015      0.24       2.54       7.62       25         OUTLET    
SubCatch_157     0.015      0.24       2.54       7.62       25         OUTLET    
SubCatch_162     0.015      0.24       2.54       7.62       25         OUTLET    
SubCatch_168     0.015      0.24       2.54       7.62       25         OUTLET    
SubCatch_170     0.015      0.24       2.54       7.62       25         OUTLET    
SubCatch_176     0.015      0.24       2.54       7.62       25         OUTLET    
SubCatch_180     0.015      0.24       2.54       7.62       25         OUTLET    
SubCatch_184     0.015      0.24       2.54       7.62       25         OUTLET    
SubCatch_186     0.015      0.24       2.54       7.62       25         OUTLET    
SubCatch_202     0.015      0.24       2.54       7.62       25         OUTLET    
SubCatch_204     0.015      0.24       2.54       7.62       25         OUTLET    
SubCatch_213     0.015      0.24       2.54       7.62       25         OUTLET    
SubCatch_214     0.015      0.24       2.54       7.62       25         OUTLET    
SubCatch_217     0.015      0.24       2.54       7.62       25         OUTLET    
SubCatch_222     0.015      0.24       2.54       7.62       25         OUTLET    
SubCatch_227     0.015      0.24       2.54       7.62       25         OUTLET    
SubCatch_231     0.015      0.24       2.54       7.62       25         OUTLET    
SubCatch_245     0.015      0.24       2.54       7.62       25         OUTLET    
SubCatch_246     0.015      0.24       2.54       7.62       25         OUTLET    
SubCatch_262     0.015      0.24       2.54       7.62       25         OUTLET    
SubCatch_268     0.015      0.24       2.54       7.62       25         OUTLET    
SubCatch_269     0.015      0.24       2.54       7.62       25         OUTLET    
SubCatch_273     0.015      0.24       2.54       7.62       25         OUTLET    
SubCatch_277     0.015      0.24       2.54       7.62       25         OUTLET    
SubCatch_284     0.015      0.24       2.54       7.62       25         OUTLET    
SubCatch_285     0.015      0.24       2.54       7.62       25         OUTLET    
SubCatch_289     0.015      0.24       2.54       7.62       25         OUTLET    
SubCatch_296     0.015      0.24       2.54       7.62       25         OUTLET    
SubCatch_297     0.015      0.24       2.54       7.62       25         OUTLET    
SubCatch_298     0.015      0.24       2.54       7.62       25         OUTLET    
SubCatch_308     0.015      0.24       2.54       7.62       25         OUTLET    
SubCatch_319     0.015      0.24       2.54       7.62       25         OUTLET    
SubCatch_320     0.015      0.24       2.54       7.62       25         OUTLET    
SubCatch_328     0.015      0.24       2.54       7.62       25         OUTLET    
SubCatch_329     0.015      0.24       2.54       7.62       25         OUTLET    
SubCatch_332     0.015      0.24       2.54       7.62       25         OUTLET    
SubCatch_334     0.015      0.24       2.54       7.62       25         OUTLET    
SubCatch_335     0.015      0.24       2.54       7.62       25         OUTLET    
SubCatch_342     0.015      0.24       2.54       7.62       25         OUTLET    
SubCatch_347     0.015      0.24       2.54       7.62       25         OUTLET    
SubCatch_350     0.015      0.24       2.54       7.62       25         OUTLET    
SubCatch_355     0.015      0.24       2.54       7.62       25         OUTLET    
SubCatch_356     0.015      0.24       2.54       7.62       25         OUTLET    
SubCatch_368     0.015      0.24       2.54       7.62       25         OUTLET    
SubCatch_375     0.015      0.24       2.54       7.62       25         OUTLET    
SubCatch_382     0.015      0.24       2.54       7.62       25         OUTLET    
SubCatch_399     0.015      0.24       2.54       7.62       25         OUTLET    
SubCatch_400     0.015      0.24       2.54       7.62       25         OUTLET    
SubCatch_402     0.015      0.24       2.54       7.62       25         OUTLET    
SubCatch_414     0.015      0.24       2.54       7.62       25         OUTLET    
SubCatch_421     0.015      0.24       2.54       7.62       25         OUTLET    

[INFILTRATION]
;;Subcatchment   Param1     Param2     Param3     Param4     Param5    
;;-------------- ---------- ---------- ---------- ---------- ----------
SubCatch_128     3.0        0.5        4          7          0          HORTON
SubCatch_129     3.0        0.5        4          7          0          HORTON
SubCatch_131     3.0        0.5        4          7          0          HORTON
SubCatch_132     3.0        0.5        4          7          0          HORTON
SubCatch_133     3.0        0.5        4          7          0          HORTON
SubCatch_149     3.0        0.5        4          7          0          HORTON
SubCatch_157     3.0        0.5        4          7          0          HORTON
SubCatch_162     3.0        0.5        4          7          0          HORTON
SubCatch_168     3.0        0.5        4          7          0          HORTON
SubCatch_170     3.0        0.5        4          7          0          HORTON
SubCatch_176     3.0        0.5        4          7          0          HORTON
SubCatch_180     3.0        0.5        4          7          0          HORTON
SubCatch_184     3.0        0.5        4          7          0          HORTON
SubCatch_186     3.0        0.5        4          7          0          HORTON
SubCatch_202     3.0        0.5        4          7          0          HORTON
SubCatch_204     3.0        0.5        4          7          0          HORTON
SubCatch_213     3.0        0.5        4          7          0          HORTON
SubCatch_214     3.0        0.5        4          7          0          HORTON
SubCatch_217     3.0        0.5        4          7          0          HORTON
SubCatch_222     3.0        0.5        4          7          0          HORTON
SubCatch_227     3.0        0.5        4          7          0          HORTON
SubCatch_231     3.0        0.5        4          7          0          HORTON
SubCatch_245     3.0        0.5        4          7          0          HORTON
SubCatch_246     3.0        0.5        4          7          0          HORTON
SubCatch_262     3.0        0.5        4          7          0          HORTON
SubCatch_268     3.0        0.5        4          7          0          HORTON
SubCatch_269     3.0        0.5        4          7          0          HORTON
SubCatch_273     3.0        0.5        4          7          0          HORTON
SubCatch_277     3.0        0.5        4          7          0          HORTON
SubCatch_284     3.0        0.5        4          7          0          HORTON
SubCatch_285     3.0        0.5        4          7          0          HORTON
SubCatch_289     3.0        0.5        4          7          0          HORTON
SubCatch_296     3.0        0.5        4          7          0          HORTON
SubCatch_297     3.0        0.5        4          7          0          HORTON
SubCatch_298     3.0        0.5        4          7          0          HORTON
SubCatch_308     3.0        0.5        4          7          0          HORTON
SubCatch_319     3.0        0.5        4          7          0          HORTON
SubCatch_320     3.0        0.5        4          7          0          HORTON
SubCatch_328     3.0        0.5        4          7          0          HORTON
SubCatch_329     3.0        0.5        4          7          0          HORTON
SubCatch_332     3.0        0.5        4          7          0          HORTON
SubCatch_334     3.0        0.5        4          7          0          HORTON
SubCatch_335     3.0        0.5        4          7          0          HORTON
SubCatch_342     3.0        0.5        4          7          0          HORTON
SubCatch_347     3.0        0.5        4          7          0          HORTON
SubCatch_350     3.0        0.5        4          7          0          HORTON
SubCatch_355     3.0        0.5        4          7          0          HORTON
SubCatch_356     3.0        0.5        4          7          0          HORTON
SubCatch_368     3.0        0.5        4          7          0          HORTON
SubCatch_375     3.0        0.5        4          7          0          HORTON
SubCatch_382     3.0        0.5        4          7          0          HORTON
SubCatch_399     3.0        0.5        4          7          0          HORTON
SubCatch_400     3.0        0.5        4          7          0          HORTON
SubCatch_402     3.0        0.5        4          7          0          HORTON
SubCatch_414     3.0        0.5        4          7          0          HORTON
SubCatch_421     3.0        0.5        4          7          0          HORTON

[JUNCTIONS]
;;Name           Elevation  MaxDepth   InitDepth  SurDepth   Aponded   
;;-------------- ---------- ---------- ---------- ---------- ----------
99825            43.46      1          0          0          0         
99709            42.2       1          0          0          0         
99824            43.48      1          0          0          0         
99710            42.11      1          0          0          0         
97453            41.15      1          0          0          0         
97454            41.1       1          0          0          0         
54235            2.82       1.2        0          0          0         
54224            2.26       1.21       0          0          0         
98473            12.64      1.01       0          0          0         
98283            11.77      1.08       0          0          0         
77825            30.11      1          0          0          0         
77828            29.73      1          0          0          0         
160419           28.58      1          0          0          0         
54706            31.37      1.2        0          0          0         
77824            30.53      1          0          0          0         
77827            29.79      1          0          0          0         
160428           28.78      1.1        0          0          0         
77615            23.98      1          0          0          0         
77601            23.46      1          0          0          0         
77600            23.21      1          0          0          0         
77602            22.5       1          0          0          0         
77323            25.05      1          0          0          0         
54921            22.55      1.18       0          0          0         
77324            25.05      1          0          0          0         
54926            23.2       1.01       0          0          0         
77321            26.88      1          0          0          0         
77322            26.85      1          0          0          0         
65135            29.8       1.0        0          0          0         
65460            32.31      1.2        0          0          0         
55066            25.08      1.0        0          0          0         
Node_56          23.43      1          0          0          0         
55038            26.8       1.0        0          0          0         
55035            26.48      1.6        0          0          0         
55030            26.5       2.72       0          0          0         
55027            26.16      1.6        0          0          0         
54999            24.2361    2.76       0          0          0         
54996            23.94      1.0        0          0          0         
54993            23.7       1.2        0          0          0         
54992            23.74      1.0        0          0          0         
54990            24.8       1          0          0          0         
55182            23.39      1          0          0          0         
54991            25.99      1          0          0          0         
54989            24.8       1          0          0          0         
55181            23.38      1          0          0          0         
54984            23.33      1.0        0          0          0         
54980            26.75      1          0          0          0         
54974            24.72      1.0        0          0          0         
54973            23.12      1.0        0          0          0         
54972            23.04      1.0        0          0          0         
54967            23.41      1.2        0          0          0         
54966            22.72      1.0        0          0          0         
55185            25.92      1.0        0          0          0         
54961            24.5       1.01       0          0          0         
54962            24.52      1.17       0          0          0         
54963            28.39      1.0        0          0          0         
54960            26.54      1.0        0          0          0         
54957            24.24      1.0        0          0          0         
54955            23.93      1.02       0          0          0         
159996           22.88      1.0        0          0          0         
54956            23.26      1.0        0          0          0         
78182            23.48      1          0          0          0         
161774           21.75      1.0        0          0          0         
54948            21.72      1.0        0          0          0         
137992           19.77      1          0          0          0         
159658           21.38      1          0          0          0         
54941            22.66      1.0        0          0          0         
153852           21.56      1.0        0          0          0         
592              21.2       1.0        0          0          0         
54939            22.35      1.0        0          0          0         
55136            22.42      1          0          0          0         
54938            22.61      1.0        0          0          0         
54937            22.77      1.0        0          0          0         
54936            23.01      1.0        0          0          0         
54935            22.75      1.0        0          0          0         
54934            22.82      1.0        0          0          0         
54933            21.47      1.0        0          0          0         
54932            21.36      1.01       0          0          0         
54931            20.82      1.0        0          0          0         
55183            16.66      1.03       0          0          0         
54919            23.39      1          0          0          0         
54920            23.71      1.0        0          0          0         
54918            23.03      1.0        0          0          0         
54916            22.86      1.0        0          0          0         
54915            21.99      1.0        0          0          0         
98052            20.21      1          0          0          0         
Node_52          2.78       1.0        0          0          0         
54626            5.21       1          0          0          0         
54625            5.29       1          0          0          0         
54230            2.95       1.0        0          0          0         
54737            17.33      1.01       0          0          0         
102099           13.87      1.0        0          0          0         
54725            35.07      1.2        0          0          0         
54726            33.61      1.2        0          0          0         
54724            35.41      1.2        0          0          0         
54727            33.98      1.2        0          0          0         
54246            3.41       1.0        0          0          0         
54257            3.59       1          0          0          0         
54232            2.43       1.0        0          0          0         
54231            -0.05      1.14       0          0          0         
54229            -0.75      1          0          0          0         
54228            0.93       1.4        0          0          0         
54251            0.73       1          0          0          0         
54263            -1.88      1.05       0          0          0         
54226            1.4        1.01       0          0          0         
54225            2.1        1.2        0          0          0         
82883            2.05       1.16       0          0          0         
54221            2.32       1.0        0          0          0         
54220            0.6        1          0          0          0         
73814            0.76       1          0          0          0         
54219            1.02       1          0          0          0         
54212            17.76      1          0          0          0         
54276            17.33      1          0          0          0         
54210            18.04      1.2        0          0          0         
54209            17.42      1.19       0          0          0         
54211            18.01      1.2        0          0          0         
54208            17.04      1.01       0          0          0         
54207            16.91      1.2        0          0          0         
54206            16.85      1.2        0          0          0         
138789           16.81      1.2        0          0          0         
54204            13.96      1.2        0          0          0         
54203            11.82      1.2        0          0          0         
54202            10.04      1.2        0          0          0         
138795           12.72      1.19       0          0          0         
138796           7.25       1.15       0          0          0         
83142            8.07       1.16       0          0          0         
54199            7.15       1.2        0          0          0         
Node_51          3.24       1.01       0          0          0         
54196            1.19       1.2        0          0          0         
54195            0.97       1.4        0          0          0         
54193            1.88       1.2        0          0          0         
54248            2.4        1          0          0          0         
54191            1.24       1          0          0          0         
54190            1.23       1          0          0          0         
54171            17.81      1.0        0          0          0         
151886           8.26       1.14       0          0          0         
54170            16.74      1          0          0          0         
Node_50          9.23       1.08       0          0          0         
83039            3.66       1.11       0          0          0         
73812            2.17       1.13       0          0          0         
54241            15.52      1.0        0          0          0         
54167            8.51       1.2        0          0          0         
54168            6.32       1.04       0          0          0         
54166            10.44      1.0        0          0          0         
Node_49          7.71       1          0          0          0         
54163            3.56       1.0        0          0          0         
54164            0.24       1          0          0          0         
54160            4.61       1.18       0          0          0         
54161            4.35       1.2        0          0          0         
Node_48          5.13       1.15       0          0          0         
54159            3.16       1.38       0          0          0         
54158            1.87       1          0          0          0         
54156            6.71       1.2        0          0          0         
54157            3.38       1.2        0          0          0         
82848            12.28      1.0        0          0          0         
54152            13.72      1.2        0          0          0         
Node_47          13.76      1.05       0          0          0         
54151            14.63      1.2        0          0          0         
54149            18.15      1.2        0          0          0         
54147            19.7       1.2        0          0          0         
54145            20.77      1.2        0          0          0         
54143            23.09      1.2        0          0          0         
54139            28.4       1.2        0          0          0         
Node_46          26.58      1.2        0          0          0         
98207            21.25      1          0          0          0         
98206            21.99      1.0        0          0          0         
98051            19.81      1          0          0          0         
98203            20.32      1          0          0          0         
Node_1           6.72       1          0          0          0         