[TITLE]
;;Project Title/Notes
demo

[OPTIONS]
;;Option  Value
FLOW_UNITS  LPS
INFILTRATION  MODIFIED_GREEN_AMPT
FLOW_ROUTING  DYNWAVE
LINK_OFFSETS  DEPTH
MIN_SLOPE  0
ALLOW_PONDING  NO
SKIP_STEADY_STATE  NO
START_DATE  9/24/2020
START_TIME  0:00:00
REPORT_START_DATE  9/24/2020
REPORT_START_TIME  0:00:00
END_DATE  9/24/2020
END_TIME  23:55:00
SWEEP_START  1-Jan
SWEEP_END  31-Dec
DRY_DAYS  0
REPORT_STEP  0:05:00
WET_STEP  0:05:00
DRY_STEP  1:00:00
ROUTING_STEP  0:00:30
RULE_STEP  0:00:00
INERTIAL_DAMPING  PARTIAL
NORMAL_FLOW_LIMITED  BOTH
FORCE_MAIN_EQUATION  H-W
VARIABLE_STEP  0.75
LENGTHENING_STEP  0
MIN_SURFAREA  1.167
MAX_TRIALS  8
HEAD_TOLERANCE  0.0015
SYS_FLOW_TOL  5
LAT_FLOW_TOL  5
MINIMUM_STEP  0.5
THREADS  1


[RAINGAGES]
;;Name           Format    Interval SCF      Source
;;-------------- --------- ------   ------   ----------
;DESCRIPTION
TS  INTENSITY  0:05  0  FILE  "D:/InfoTiles/PythonCodes/SWMM/Data/raingage_demo.csv" TS  MM

[JUNCTIONS]
;;Name           Elevation  MaxDepth   InitDepth  SurDepth   Aponded
;;-------------- ---------- ---------- ---------- ---------- --------
99825  43.46  1  0  0  0
99709  42.2  1  0  0  0
99824  43.48  1  0  0  0
99710  42.11  1  0  0  0
97453  41.15  1  0  0  0
97454  41.1  1  0  0  0
54235  2.82  1.2  0  0  0
54224  2.26  1.21  0  0  0
98473  12.64  1.01  0  0  0
98283  11.77  1.08  0  0  0
77825  30.11  1  0  0  0
77828  29.73  1  0  0  0
160419  28.58  1  0  0  0
54706  31.37  1.2  0  0  0
77824  30.53  1  0  0  0
77827  29.79  1  0  0  0
160428  28.78  1.1  0  0  0
77615  23.98  1  0  0  0
77601  23.46  1  0  0  0
77600  23.21  1  0  0  0
77602  22.5  1  0  0  0
77323  25.05  1  0  0  0
54921  22.55  1.18  0  0  0
77324  25.05  1  0  0  0
54926  23.2  1.01  0  0  0
77321  26.88  1  0  0  0
77322  26.85  1  0  0  0
65135  29.8  1.0  0  0  0
65460  32.31  1.2  0  0  0
55066  25.08  1.0  0  0  0
Node_56  23.43  1  0  0  0
55038  26.8  1.0  0  0  0
55035  26.48  1.6  0  0  0
55030  26.5  2.72  0  0  0
55027  26.16  1.6  0  0  0
54999  24.2361  2.76  0  0  0
54996  23.94  1.0  0  0  0
54993  23.7  1.2  0  0  0
54992  23.74  1.0  0  0  0
54990  24.8  1  0  0  0
55182  23.39  1  0  0  0
54991  25.99  1  0  0  0
54989  24.8  1  0  0  0
55181  23.38  1  0  0  0
54984  23.33  1.0  0  0  0
54980  26.75  1  0  0  0
54974  24.72  1.0  0  0  0
54973  23.12  1.0  0  0  0
54972  23.04  1.0  0  0  0
54967  23.41  1.2  0  0  0
54966  22.72  1.0  0  0  0
55185  25.92  1.0  0  0  0
54961  24.5  1.01  0  0  0
54962  24.52  1.17  0  0  0
54963  28.39  1.0  0  0  0
54960  26.54  1.0  0  0  0
54957  24.24  1.0  0  0  0
54955  23.93  1.02  0  0  0
159996  22.88  1.0  0  0  0
54956  23.26  1.0  0  0  0
78182  23.48  1  0  0  0
161774  21.75  1.0  0  0  0
54948  21.72  1.0  0  0  0
137992  19.77  1  0  0  0
159658  21.38  1  0  0  0
54941  22.66  1.0  0  0  0
153852  21.56  1.0  0  0  0
592  21.2  1.0  0  0  0
54939  22.35  1.0  0  0  0
55136  22.42  1  0  0  0
54938  22.61  1.0  0  0  0
54937  22.77  1.0  0  0  0
54936  23.01  1.0  0  0  0
54935  22.75  1.0  0  0  0
54934  22.82  1.0  0  0  0
54933  21.47  1.0  0  0  0
54932  21.36  1.01  0  0  0
54931  20.82  1.0  0  0  0
55183  16.66  1.03  0  0  0
54919  23.39  1  0  0  0
54920  23.71  1.0  0  0  0
54918  23.03  1.0  0  0  0
54916  22.86  1.0  0  0  0
54915  21.99  1.0  0  0  0
98052  20.21  1  0  0  0
Node_52  2.78  1.0  0  0  0
54626  5.21  1  0  0  0
54625  5.29  1  0  0  0
54230  2.95  1.0  0  0  0
54737  17.33  1.01  0  0  0
102099  13.87  1.0  0  0  0
54725  35.07  1.2  0  0  0
54726  33.61  1.2  0  0  0
54724  35.41  1.2  0  0  0
54727  33.98  1.2  0  0  0
54246  3.41  1.0  0  0  0
54257  3.59  1  0  0  0
54232  2.43  1.0  0  0  0
54231  -0.05  1.14  0  0  0
54229  -0.75  1  0  0  0
54228  0.93  1.4  0  0  0
54251  0.73  1  0  0  0
54263  -1.88  1.05  0  0  0
54226  1.4  1.01  0  0  0
54225  2.1  1.2  0  0  0
82883  2.05  1.16  0  0  0
54221  2.32  1.0  0  0  0
54220  0.6  1  0  0  0
73814  0.76  1  0  0  0
54219  1.02  1  0  0  0
54212  17.76  1  0  0  0
54276  17.33  1  0  0  0
54210  18.04  1.2  0  0  0
54209  17.42  1.19  0  0  0
54211  18.01  1.2  0  0  0
54208  17.04  1.01  0  0  0
54207  16.91  1.2  0  0  0
54206  16.85  1.2  0  0  0
138789  16.81  1.2  0  0  0
54204  13.96  1.2  0  0  0
54203  11.82  1.2  0  0  0
54202  10.04  1.2  0  0  0
138795  12.72  1.19  0  0  0
138796  7.25  1.15  0  0  0
83142  8.07  1.16  0  0  0
54199  7.15  1.2  0  0  0
Node_51  3.24  1.01  0  0  0
54196  1.19  1.2  0  0  0
54195  0.97  1.4  0  0  0
54193  1.88  1.2  0  0  0
54248  2.4  1  0  0  0
54191  1.24  1  0  0  0
54190  1.23  1  0  0  0
54171  17.81  1.0  0  0  0
151886  8.26  1.14  0  0  0
54170  16.74  1  0  0  0
Node_50  9.23  1.08  0  0  0
83039  3.66  1.11  0  0  0
73812  2.17  1.13  0  0  0
54241  15.52  1.0  0  0  0
54167  8.51  1.2  0  0  0
54168  6.32  1.04  0  0  0
54166  10.44  1.0  0  0  0
Node_49  7.71  1  0  0  0
54163  3.56  1.0  0  0  0
54164  0.24  1  0  0  0
54160  4.61  1.18  0  0  0
54161  4.35  1.2  0  0  0
Node_48  5.13  1.15  0  0  0
54159  3.16  1.38  0  0  0
54158  1.87  1  0  0  0
54156  6.71  1.2  0  0  0
54157  3.38  1.2  0  0  0
82848  12.28  1.0  0  0  0
54152  13.72  1.2  0  0  0
Node_47  13.76  1.05  0  0  0
54151  14.63  1.2  0  0  0
54149  18.15  1.2  0  0  0
54147  19.7  1.2  0  0  0
54145  20.77  1.2  0  0  0
54143  23.09  1.2  0  0  0
54139  28.4  1.2  0  0  0
Node_46  26.58  1.2  0  0  0
98207  21.25  1  0  0  0
98206  21.99  1.0  0  0  0
98051  19.81  1  0  0  0
98203  20.32  1  0  0  0
Node_1  6.72  1  0  0  0
98050  20.35  1  0  0  0
98205  21.99  1.0  0  0  0
78189  23.82  1  0  0  0
78694  23.84  1  0  0  0
78655  2.84  2.0  0  0  0
78659  2.38  4.46  0  0  0
78656  3.43  2.0  0  0  0
78657  4.38  1  0  0  0
78663  -2.08  1.33  0  0  0
78653  0.13  1.4  0  0  0
78654  1.45  1  0  0  0
Node_125  24.35  1  0  0  0
78490  24.23  1  0  0  0
79525  24.46  1  0  0  0
78491  24.26  1  0  0  0
78488  24.12  1  0  0  0
78489  24.17  1  0  0  0
78455  24.05  1  0  0  0
78454  24.02  1  0  0  0
78355  23.88  1  0  0  0
78356  23.79  1  0  0  0
78191  23.97  1  0  0  0
78192  23.89  1  0  0  0
78190  23.9  1  0  0  0
78693  23.97  1  0  0  0
78187  23.4  1  0  0  0
78188  23.42  1  0  0  0
78186  23.36  1  0  0  0
78185  23.24  1.19  0  0  0
78203  23.25  1.1  0  0  0
78184  23.69  1  0  0  0
78085  43.47  1  0  0  0
56281  42.13  1.02  0  0  0
56416  44.1  1.0  0  0  0
77930  37.01  1.0  0  0  0
78002  35.81  1.24  0  0  0
77932  37.87  1.0  0  0  0
77931  37.96  1.0  0  0  0
77934  38.89  1.0  0  0  0
97813  43.57  1.11  0  0  0
97723  43.73  1.0  0  0  0
97816  43.56  1.06  0  0  0
97724  43.57  1  0  0  0
97725  43.68  1  0  0  0
77937  42.83  1  0  0  0
159550  40.33  1  0  0  0
77927  45.65  1.0  0  0  0
77924  45.4  1.0  0  0  0
77942  44.77  1.0  0  0  0
77943  44.65  1.0  0  0  0
55867  44.51  1.0  0  0  0
Node_59  43.92  1.08  0  0  0
77938  44.84  1.0  0  0  0
77318  28.7  1  0  0  0
77319  28.67  1  0  0  0
76883  23.1  1  0  0  0
54521  19.51  1.2  0  0  0
76879  23.07  1  0  0  0
54522  19.75  1.2  0  0  0
96127  40.13  1  0  0  0
97189  39.93  1  0  0  0
97185  40.22  1  0  0  0
97175  39.84  1  0  0  0
93799  37.32  1.0  0  0  0
97173  39.82  1  0  0  0
93798  37.54  1.0  0  0  0
153728  12.36  1.69  0  0  0
101831  11.98  1.94  0  0  0
96126  40.46  1  0  0  0
96207  12.08  1  0  0  0
91924  9.99  1.2  0  0  0
101833  11.53  1  0  0  0
91925  10.07  1.2  0  0  0
95681  36.78  1.02  0  0  0
95683  35.42  1.0  0  0  0
95493  39.21  1  0  0  0
94274  38.43  1  0  0  0
95487  41.2  1.0  0  0  0
94231  38.2  1.0  0  0  0
148988  29.42  1  0  0  0
56243  29.01  1.0  0  0  0
93770  36.94  1  0  0  0
93774  37.53  1  0  0  0
93763  36.74  1  0  0  0
93766  36.91  1  0  0  0
93762  36.87  1  0  0  0
93738  37.09  1  0  0  0
55881  37.18  1.0  0  0  0
55758  40.6  1.0  0  0  0
92884  17.46  1.02  0  0  0
92890  19.31  1.02  0  0  0
92891  19.45  1  0  0  0
92881  17.79  1.05  0  0  0
91936  11.72  1.0  0  0  0
101830  8.74  1.2  0  0  0
90197  7.65  1.07  0  0  0
90329  17.37  1  0  0  0
90454  24.15  1  0  0  0
90289  16.71  1  0  0  0
54631  15.88  1  0  0  0
90195  7.04  1.02  0  0  0
90193  5.91  1  0  0  0
90194  7.16  1.02  0  0  0
90192  5.58  1  0  0  0
90196  7.56  1.08  0  0  0
75325  8.96  1.0  0  0  0
Node_116  8.44  1  0  0  0
73868  23.88  1.2  0  0  0
836  7.73  1  0  0  0
54663  8.02  1  0  0  0
83809  5.13  1  0  0  0
74564  27.04  1  0  0  0
84078  8.06  1  0  0  0
65100  8.57  1.0  0  0  0
54730  0.59  1.0  0  0  0
73894  -2.29  1  0  0  0
73877  35.34  1.0  0  0  0
73876  33.42  1.0  0  0  0
73875  31.65  1.0  0  0  0
73874  27.17  1  0  0  0
73872  24.45  1.0  0  0  0
73873  27.23  1  0  0  0
73871  24.62  1.0  0  0  0
776  16.93  1  0  0  0
73857  24.22  1  0  0  0
73856  24.9  1  0  0  0
73855  24.06  1.0  0  0  0
73854  22.39  1.0  0  0  0
73847  15.17  1.2  0  0  0
73848  15.11  1.2  0  0  0
73851  11.52  1.04  0  0  0
73846  13.47  1.2  0  0  0
73816  0.24  1.1  0  0  0
73817  2.34  1.15  0  0  0
89486  12.4  1.02  0  0  0
89671  9.22  1.03  0  0  0
89659  18.64  1  0  0  0
89653  16.93  1  0  0  0
89658  18.66  1  0  0  0
89652  16.96  1  0  0  0
89546  16.26  1.01  0  0  0
89545  16.28  1.01  0  0  0
89627  19.45  1  0  0  0
89629  19.39  1  0  0  0
89550  18.89  1  0  0  0
89551  18.86  1  0  0  0
89537  15.53  1.11  0  0  0
89538  15.34  1.11  0  0  0
89485  12.21  1.02  0  0  0
89447  10.42  1.07  0  0  0
89434  46.64  1  0  0  0
89435  46.82  1.04  0  0  0
89433  46.61  1  0  0  0
89370  46.07  1  0  0  0
89369  44.88  1  0  0  0
89193  43.79  1  0  0  0
88967  40.27  1  0  0  0
89074  9.03  1  0  0  0
89076  8.74  1  0  0  0
88956  38.52  1  0  0  0
88955  37.02  1  0  0  0
89498  38.93  1.0  0  0  0
88080  38.76  1  0  0  0
88369  24.18  1.0  0  0  0
88488  23.99  1  0  0  0
88359  24.21  1.0  0  0  0
Node_55  24.29  1.0  0  0  0
88363  24.15  1.0  0  0  0
88357  24.17  1.0  0  0  0
87738  24.06  1  0  0  0
88194  35.78  1.13  0  0  0
88231  35.88  1.26  0  0  0
88232  35.83  1.27  0  0  0
88192  36.16  1.13  0  0  0
85562  35.86  1.21  0  0  0
88176  35.49  1.1  0  0  0
88175  35.17  1.1  0  0  0
88105  33.32  1.09  0  0  0
88104  33.13  1.09  0  0  0
88040  38.3  1.0  0  0  0
88081  38.6  1  0  0  0
88041  38.16  1.0  0  0  0
88029  30.96  1.02  0  0  0
88027  30.96  1.02  0  0  0
87667  14.81  1  0  0  0
86026  12.51  1  0  0  0
87569  37.71  1  0  0  0
87415  36.33  1  0  0  0
87562  37.28  1.0  0  0  0
87375  35.78  1.37  0  0  0
101259  35.64  1  0  0  0
55744  36.29  1.0  0  0  0
Node_58  35.98  1.11  0  0  0
Node_57  35.88  1  0  0  0
129260  37.06  1.0  0  0  0
87377  35.86  1.2  0  0  0
87221  36.4  1  0  0  0
87176  40.18  1  0  0  0
87170  40.17  1  0  0  0
54701  39.07  1.0  0  0  0
87164  40.97  1  0  0  0
87142  24.14  1  0  0  0
87138  24.07  1  0  0  0
87137  23.86  1  0  0  0
87125  23.11  1  0  0  0
86815  16.93  1  0  0  0
86801  24.26  1  0  0  0
86811  24.86  1  0  0  0
86810  25.12  1  0  0  0
86032  19.34  1  0  0  0
86030  16.61  1  0  0  0
85947  37.14  1.06  0  0  0
85946  37.16  1.06  0  0  0
85563  35.85  1.21  0  0  0
85672  6.65  1  0  0  0
85671  4.01  1.13  0  0  0
85666  3.3  1  0  0  0
83008  2.09  1  0  0  0
84489  12.54  1  0  0  0
84626  12.61  1  0  0  0
84625  11.51  1  0  0  0
84189  9.52  1  0  0  0
84487  9.73  1  0  0  0
101206  3.57  1  0  0  0
84079  8.42  1  0  0  0
84027  9.94  1  0  0  0
65422  36.48  1.0  0  0  0
65420  44.74  1.0  0  0  0
160169  43.84  1  0  0  0
65402  42.56  1.0  0  0  0
65423  36.41  1.0  0  0  0
65398  46.23  1.0  0  0  0
83964  7.6  1  0  0  0
83810  7.91  1  0  0  0
83961  8.03  1  0  0  0
83820  -2.2  1  0  0  0
65205  34.9  1.2  0  0  0
65201  33.63  1.2  0  0  0
65197  50.95  1.0  0  0  0
65200  49.47  1.0  0  0  0
65196  50.76  1.0  0  0  0
65198  49.33  1.0  0  0  0
65195  51.85  1.0  0  0  0
65193  51.49  1.0  0  0  0
65190  51.81  1.0  0  0  0
65192  52.45  1.0  0  0  0
65189  51.65  1.0  0  0  0
65191  52.17  1.0  0  0  0
65187  52.25  1.0  0  0  0
65183  52.08  1.2  0  0  0
65181  50.34  1.0  0  0  0
65180  49.17  1.2  0  0  0
65178  48.81  1.0  0  0  0
65177  49.02  1.0  0  0  0
65448  46.97  1.2  0  0  0
65160  47.07  1.0  0  0  0
65159  46.51  1.0  0  0  0
65390  45.4  1.0  0  0  0
65158  43.12  1.0  0  0  0
65157  39.9  1.0  0  0  0
65156  37.41  1  0  0  0
151964  36.53  1.0  0  0  0
65153  34.56  1.0  0  0  0
65152  34.89  1.0  0  0  0
65151  33.33  1.2  0  0  0
65147  29.95  1.2  0  0  0
65146  30.09  1.2  0  0  0
65145  27.15  1.2  0  0  0
65144  27.09  1.2  0  0  0
65142  25.76  1.2  0  0  0
65141  25.67  1.2  0  0  0
65140  35.09  1.0  0  0  0
65139  35.14  1.2  0  0  0
65136  32.45  1.2  0  0  0
65134  36.27  1.0  0  0  0
65133  38.18  1.0  0  0  0
65131  22.5  1.0  0  0  0
65129  25.13  1.2  0  0  0
83063  7.75  1.13  0  0  0
83041  6.47  1.12  0  0  0
83040  4.5  1.12  0  0  0
83014  6.0  1  0  0  0
83016  6.29  1  0  0  0
83013  2.88  1  0  0  0
Node_53  2.5  1  0  0  0
65444  23.46  1.0  0  0  0
65130  30.84  1.0  0  0  0
65128  25.23  1.2  0  0  0
65124  23.63  1.0  0  0  0
65123  23.46  1.0  0  0  0
65125  23.36  1.0  0  0  0
65122  22.53  1.0  0  0  0
65121  23.37  1.0  0  0  0
65120  21.89  1.0  0  0  0
65119  21.71  1.0  0  0  0
65118  20.64  1.0  0  0  0
65117  21.02  1.0  0  0  0
65116  20.54  1.0  0  0  0
65416  19.92  1.2  0  0  0
65115  20.91  1.0  0  0  0
65114  19.85  1.2  0  0  0
65113  24.82  1.2  0  0  0
65111  24.45  1.2  0  0  0
65108  6.08  1.0  0  0  0
139113  5.88  1.01  0  0  0
65110  5.75  1.0  0  0  0
65107  5.69  1.0  0  0  0
65415  -2.11  1.22  0  0  0
65105  7.45  1.0  0  0  0
139107  7.2  1.01  0  0  0
65103  5.03  1.0  0  0  0
65104  7.11  1.0  0  0  0
65102  8.38  1.0  0  0  0
65101  8.24  1.0  0  0  0
64763  53.2  1.0  0  0  0
64793  52.48  1.0  0  0  0
64756  48.7  1.0  0  0  0
55823  45.97  1.0  0  0  0
64737  52.63  1.0  0  0  0
64736  52.52  1.0  0  0  0
64738  52.65  1.0  0  0  0
64735  52.35  1.0  0  0  0
64734  50.94  1.0  0  0  0
64733  51.13  1.0  0  0  0
64626  50.15  1.2  0  0  0
145989  50.92  1.05  0  0  0
64624  49.83  1.2  0  0  0
64625  50.53  1.2  0  0  0
64623  49.31  1.2  0  0  0
64616  47.38  1.18  0  0  0
64612  47.18  1.0  0  0  0
55790  46.4  1.2  0  0  0
64611  47.52  1.0  0  0  0
55880  47.02  1.2  0  0  0
155986  47.33  1  0  0  0
64610  47.35  1.0  0  0  0
64609  47.4  1.0  0  0  0
64607  50.31  1.2  0  0  0
64606  52.81  1.0  0  0  0
64605  52.44  1.0  0  0  0
156299  60.24  1  0  0  0
64603  57.78  1.0  0  0  0
80681  58.4  1.0  0  0  0
2700  56.58  1.0  0  0  0
64602  56.17  1.0  0  0  0
82860  0.47  1  0  0  0
54165  7.41  1  0  0  0
82904  5.48  1  0  0  0
83037  4.85  1.15  0  0  0
Node_134  5.41  1  0  0  0
82905  5.42  1  0  0  0
82895  15.04  1  0  0  0
82865  13.66  1  0  0  0
82894  15.05  1  0  0  0
82851  14.07  1.0  0  0  0
82836  -1.53  1  0  0  0
82428  13.46  1.19  0  0  0
82427  -1.7  1.02  0  0  0
81434  5.63  1  0  0  0
81436  12.22  1  0  0  0
64571  62.33  1.0  0  0  0
64565  60.52  1  0  0  0
64562  57.81  1.0  0  0  0
64561  56.31  1.0  0  0  0
64556  55.31  1.0  0  0  0
64555  54.77  1.0  0  0  0
64554  54.19  1.0  0  0  0
64552  50.94  1.0  0  0  0
80438  42.2  1  0  0  0
80441  41.15  1.17  0  0  0
80436  37.11  1  0  0  0
80434  36.11  1  0  0  0
80437  41.18  1  0  0  0
80440  37.16  1  0  0  0
80435  36.01  1  0  0  0
80442  34.05  1  0  0  0
79552  55.92  1  0  0  0
79551  55.76  1.0  0  0  0
79548  55.9  1  0  0  0
79550  55.8  1.0  0  0  0
79549  55.31  1  0  0  0
79545  53.84  1.0  0  0  0
Node_133  53.98  1.04  0  0  0
79544  53.75  1.18  0  0  0
79559  53.16  1  0  0  0
Node_132  54.04  1  0  0  0
79558  53.17  1  0  0  0
79524  24.4  1  0  0  0
Node_129  24.36  1  0  0  0
79523  24.47  1  0  0  0
79481  47.82  1.0  0  0  0
902  46.49  1.0  0  0  0
56412  39.2  1.0  0  0  0
55929  37.9  1.0  0  0  0
56410  40.66  1.0  0  0  0
55742  37.86  1.0  0  0  0
55186  21.76  1  0  0  0
56267  26.04  1.2  0  0  0
56266  26.3  1.2  0  0  0
56263  27.19  1.0  0  0  0
55067  25.51  1.0  0  0  0
56261  26.0  1.0  0  0  0
55950  34.09  1.06  0  0  0
56244  32.2  1.0  0  0  0
56242  27.02  1  0  0  0
54965  25.69  1.0  0  0  0
54707  30.63  1.2  0  0  0
55946  31.23  1.01  0  0  0
56224  30.25  1.0  0  0  0
56516  36.14  1  0  0  0
56515  35.76  1.0  0  0  0
56495  44.21  1  0  0  0
56546  42.83  1  0  0  0
56492  42.29  1.0  0  0  0
56494  41.5  1.0  0  0  0
56491  43.09  1.0  0  0  0
56487  41.35  1.0  0  0  0
56511  39.42  1.14  0  0  0
56485  29.86  1  0  0  0
56531  29.03  1.0  0  0  0
56486  29.88  1  0  0  0
56517  36.68  1.0  0  0  0
56484  36.72  1  0  0  0
56471  37.42  1.0  0  0  0
56468  27.53  1.0  0  0  0
56522  45.56  1.0  0  0  0
56451  44.16  1.0  0  0  0
56449  42.47  1.0  0  0  0
56420  45.22  1.0  0  0  0
56419  44.41  1.0  0  0  0
56417  44.08  1.0  0  0  0
56415  41.62  1.02  0  0  0
56411  40.45  1.0  0  0  0
56493  43.12  1.0  0  0  0
56361  31.47  1.2  0  0  0
79526  23.16  1  0  0  0
56352  36.51  1.0  0  0  0
153264  27.3  1.55  0  0  0
152226  37.6  1.52  0  0  0
56349  38.34  1.0  0  0  0
56347  38.01  1.0  0  0  0
56348  38.22  1.0  0  0  0
56346  37.86  1.0  0  0  0
56345  37.89  1.0  0  0  0
56344  37.7  1.0  0  0  0
56343  37.6  1.0  0  0  0
56342  37.59  1.09  0  0  0
56337  37.54  1.2  0  0  0
56336  37.59  1.2  0  0  0
56335  36.94  1.2  0  0  0
56334  37.32  1.2  0  0  0
56332  39.97  1.0  0  0  0
56331  40.31  1.0  0  0  0
56333  41.43  1.0  0  0  0
56482  41.77  1.0  0  0  0
56325  41.47  1.0  0  0  0
56481  41.97  1.0  0  0  0
56324  41.76  1.0  0  0  0
56323  41.21  1.2  0  0  0
56555  39.42  1.14  0  0  0
56326  39.79  1.2  0  0  0
56322  39.28  1.19  0  0  0
56321  38.4  1.2  0  0  0
658  40.0  1.0  0  0  0
56320  38.95  1.2  0  0  0
56316  37.68  1.2  0  0  0
56315  37.78  1.2  0  0  0
56313  41.38  1.0  0  0  0
56312  39.76  1  0  0  0
56310  38.69  1.2  0  0  0
56308  37.29  1.2  0  0  0
56307  37.28  1.2  0  0  0
Node_61  37.92  1.18  0  0  0
56306  37.63  1.0  0  0  0
56304  36.96  1.2  0  0  0
56303  36.45  1.2  0  0  0
56301  36.63  1.2  0  0  0
56305  36.95  1.2  0  0  0
56302  36.14  1.2  0  0  0
56297  31.79  1.2  0  0  0
56296  30.64  1.0  0  0  0
56293  27.43  1.0  0  0  0
56294  24.83  1.0  0  0  0
56287  42.72  1.0  0  0  0
148693  39.91  1.08  0  0  0
56278  36.94  1.0  0  0  0
56279  40.19  1.0  0  0  0
56277  37.12  1.0  0  0  0
56276  32.08  1.2  0  0  0
56275  32.49  1.2  0  0  0
56271  29.18  1.2  0  0  0
56262  27.26  1.0  0  0  0
Node_60  28.43  1.01  0  0  0
56232  28.35  1.0  0  0  0
160454  29.35  1.0  0  0  0
55893  36.7  1.2  0  0  0
55892  36.51  1.2  0  0  0
55887  34.24  1.2  0  0  0
54717  33.4  1.2  0  0  0
55886  34.84  1.2  0  0  0
54716  33.88  1.2  0  0  0
54705  36.02  1.0  0  0  0
55875  37.36  1.0  0  0  0
54698  38.61  1.0  0  0  0
55874  37.21  1.0  0  0  0
55873  35.53  1.0  0  0  0
55949  35.39  1.05  0  0  0
55948  36.59  1.01  0  0  0
649  35.44  1.0  0  0  0
55931  40.51  1.0  0  0  0
55930  39.62  1.0  0  0  0
55947  38.56  1.0  0  0  0
55928  37.91  1  0  0  0
55933  42.67  1.19  0  0  0
55919  40.87  1.0  0  0  0
55909  41.05  1.0  0  0  0
55908  40.69  1  0  0  0
55897  35.89  1.2  0  0  0
55896  34.27  1.2  0  0  0
55891  35.8  1.2  0  0  0
55890  36.02  1.2  0  0  0
55870  42.4  1.0  0  0  0
55871  41.34  1.0  0  0  0
55866  38.97  1.0  0  0  0
55865  38.65  1.0  0  0  0
55863  33.42  1.0  0  0  0
55862  34.45  1.0  0  0  0
55856  36.48  1.0  0  0  0
55846  37.24  1.0  0  0  0
55847  37.29  1.0  0  0  0
55845  37.36  1.0  0  0  0
55844  37.69  1.0  0  0  0
55830  39.89  1.0  0  0  0
55831  40.68  1.0  0  0  0
129904  38.08  1.0  0  0  0
55827  37.36  1  0  0  0
55825  38.17  1.0  0  0  0
55828  39.16  1  0  0  0
55824  43.33  1.0  0  0  0
55822  45.42  1.0  0  0  0
55821  45.36  1.0  0  0  0
55818  43.87  1.0  0  0  0
55819  40.39  1.0  0  0  0
55811  43.4  1.05  0  0  0
55808  40.19  1.03  0  0  0
55820  40.15  1.18  0  0  0
55807  40.06  1.15  0  0  0
55805  39.75  1.15  0  0  0
55804  41.24  1.02  0  0  0
55795  40.81  1.11  0  0  0
55794  40.38  1.02  0  0  0
55792  41.8  1.97  0  0  0
55791  41.66  1.3  0  0  0
55788  48.65  1.0  0  0  0
55789  45.9  1.2  0  0  0
55786  44.5  1.0  0  0  0
55918  42.52  1.16  0  0  0
55785  42.68  1.0  0  0  0
55776  41.77  1.05  0  0  0
55784  42.29  1.2  0  0  0
55775  41.5  1.2  0  0  0
55769  40.99  1.12  0  0  0
55768  40.74  1.2  0  0  0
55767  43.63  1.2  0  0  0
55764  44.86  1.15  0  0  0
55746  42.91  1.0  0  0  0
55968  36.15  1.02  0  0  0
55741  36.6  1.0  0  0  0
55738  39.46  1.0  0  0  0
55737  37.07  1.0  0  0  0
55736  36.53  1.0  0  0  0
55735  38.68  1.0  0  0  0
55910  42.91  1  0  0  0
55718  42.38  1.0  0  0  0
55717  42.34  1.0  0  0  0
55716  40.58  1.0  0  0  0
55714  40.02  1.0  0  0  0
55702  35.12  1.0  0  0  0
54682  28.43  1.0  0  0  0
54684  29.13  1.0  0  0  0
102098  14.0  1.0  0  0  0
54517  21.99  1.19  0  0  0
54516  21.81  1.2  0  0  0
55160  22.25  1.0  0  0  0
55159  23.03  1  0  0  0
55158  22.54  1  0  0  0
55157  22.61  1  0  0  0
55155  22.62  1  0  0  0
55152  22.71  1.0  0  0  0
55151  22.92  1.0  0  0  0
55150  22.98  1.0  0  0  0
55149  22.73  1.06  0  0  0
55184  21.62  1  0  0  0
54713  33.44  1.2  0  0  0
54712  33.2  1.2  0  0  0
54729  31.77  1.2  0  0  0
54710  32.13  1.2  0  0  0
54709  31.65  1.2  0  0  0
54711  32.63  1.2  0  0  0
54708  32.09  1.2  0  0  0
54702  40.94  1.0  0  0  0
54703  41.18  1.0  0  0  0
54700  38.51  1.0  0  0  0
54699  39.31  1  0  0  0
54697  38.56  1.0  0  0  0
54696  37.23  1.0  0  0  0
54777  29.4  1  0  0  0
54728  35.43  1.2  0  0  0
54694  30.81  1.19  0  0  0
54735  24.2  1  0  0  0
54691  30.66  1.2  0  0  0
54688  29.59  1.0  0  0  0
54687  29.74  1.0  0  0  0
54695  30.81  1.0  0  0  0
54686  28.93  1.0  0  0  0
54683  28.78  1.0  0  0  0
54673  18.1  1.0  0  0  0
54664  8.6  1.0  0  0  0
54734  7.25  1  0  0  0
772  8.42  1.0  0  0  0
54662  5.42  1  0  0  0
54661  5.48  1.0  0  0  0
54649  4.53  1.0  0  0  0
54639  25.58  1.0  0  0  0
54638  26.14  1.0  0  0  0
54636  23.41  1.0  0  0  0
54635  23.9  1.0  0  0  0
54634  22.93  1.0  0  0  0
54633  23.48  1.0  0  0  0
54632  17.96  1  0  0  0
54630  16.31  1  0  0  0
54629  10.58  1.0  0  0  0
54628  11.17  1.0  0  0  0
54627  7.27  1  0  0  0
54524  19.27  1.0  0  0  0
54496  18.62  1.2  0  0  0
54495  18.42  1.2  0  0  0
54545  22.18  1.0  0  0  0
54536  19.66  1  0  0  0
54531  20.62  1  0  0  0
54520  19.33  1.2  0  0  0
54519  19.31  1.2  0  0  0
54515  20.49  1.2  0  0  0
54514  19.96  1.2  0  0  0
54513  18.68  1.01  0  0  0
54512  18.64  1.18  0  0  0
54511  19.12  1.17  0  0  0
54508  19.69  1.2  0  0  0
54507  19.02  1.2  0  0  0
54506  19.37  1.2  0  0  0
54503  18.99  1.1  0  0  0
54502  19.06  1.2  0  0  0
54510  19.2  1.2  0  0  0
54501  18.53  1.2  0  0  0
54509  18.77  1.2  0  0  0
54500  19.39  1.2  0  0  0
54499  19.15  1.2  0  0  0
54498  18.58  1.2  0  0  0
54497  18.42  1.2  0  0  0
54258  4.86  1  0  0  0
Node_54  -0.49  1.15  0  0  0
2701  57.22  1.0  0  0  0
65401  42.92  1.0  0  0  0
901  46.57  1.0  0  0  0
775  12.94  1  0  0  0
653  36.93  1  0  0  0
596  46.59  1  0  0  0
472  23.45  1.2  0  0  0
117817  5.07  1  0  0  0
115615  2.79  1.0  0  0  0
100594  4.82  1.0  0  0  0
101832  11.8  1.17  0  0  0
101242  34.99  1.07  0  0  0
101228  2.44  1.0  0  0  0
101222  3.55  1.09  0  0  0
101217  1.88  1  0  0  0
101226  0.24  1  0  0  0
101219  1.77  1  0  0  0
101216  1.45  1  0  0  0
101213  -1.89  1.08  0  0  0
101211  0.53  1.03  0  0  0
101128  33.86  1.03  0  0  0
101076  -0.12  1.19  0  0  0
100351  -0.08  1.25  0  0  0
101053  30.84  1.02  0  0  0
101042  29.97  1.04  0  0  0
100985  9.96  1.0  0  0  0
100989  9.25  1.0  0  0  0
160453  29.34  1.0  0  0  0
100868  3.51  1  0  0  0
100605  2.31  1.78  0  0  0
135114  42.32  1  0  0  0
100557  41.97  1  0  0  0
100588  7.63  1.0  0  0  0
100586  7.87  1.0  0  0  0
100558  40.93  1  0  0  0
100556  40.53  1  0  0  0

[SUBCATCHMENTS]
;;Name           Rain Gage        Outlet           Area     %Imperv  Width    %Slope   CurbLen  SnowPack
;;-------------- ---------------- ---------------- -------- -------- -------- -------- -------- ----------------
SubCatch_128  TS  54190  2.8  50  975.79  23.66  0  
SubCatch_129  TS  76883  4.96  50  1784.16  14.32  0  
SubCatch_131  TS  54509  1.87  50  621.64  9.06  0  
SubCatch_132  TS  54208  1.79  50  255.86  7.7  0  
SubCatch_133  TS  138789  5.31  50  1837.25  12.09  0  
SubCatch_149  TS  90194  2.95  50  956.13  15.92  0  
SubCatch_157  TS  91925  0.94  50  324.44  13.32  0  
SubCatch_162  TS  SubCatch_204  3.51  50  300.41  8.54  0  
SubCatch_168  TS  54919  4.93  50  598.69  6.69  0  
SubCatch_170  TS  54737  1.03  50  561.96  6.22  0  
SubCatch_176  TS  54229  6.68  50  829.96  13.14  0  
SubCatch_180  TS  100605  4.1  50  1321.51  18.63  0  
SubCatch_184  TS  65110  4.25  50  1445.42  20.68  0  
SubCatch_186  TS  54663  2.84  50  693.8  17.77  0  
SubCatch_202  TS  SubCatch_186  3.76  50  436.29  13.17  0  
SubCatch_204  TS  SubCatch_217  3.63  50  238.41  4.08  0  
SubCatch_213  TS  65205  2.78  50  768.4  17.59  0  
SubCatch_214  TS  86811  3.13  50  468.41  12.84  0  
SubCatch_217  TS  55027  2.89  50  880.55  4.64  0  
SubCatch_222  TS  65144  2.59  50  564.2  13.75  0  
SubCatch_227  TS  SubCatch_285  2.93  50  908.93  6.32  0  
SubCatch_231  TS  SubCatch_285  1.81  50  372.8  5.84  0  
SubCatch_245  TS  65153  2.08  50  768.61  8.82  0  
SubCatch_246  TS  91924  7.92  50  1139.19  12.7  0  
SubCatch_262  TS  80434  2.95  50  1676.28  8.26  0  
SubCatch_268  TS  88104  4.0  50  1176.61  7.58  0  
SubCatch_269  TS  SubCatch_149  2.91  50  1071.79  19.51  0  
SubCatch_273  TS  54961  2.49  50  915.84  8.59  0  
SubCatch_277  TS  80434  4.0  50  994.49  7.39  0  
SubCatch_284  TS  65178  1.32  50  441.28  5.82  0  
SubCatch_285  TS  54948  1.46  50  203.19  7.91  0  
SubCatch_289  TS  65195  5.6  50  1840.42  8.73  0  
SubCatch_296  TS  77924  2.0  50  652.64  6.14  0  
SubCatch_297  TS  78189  1.08  50  257.3  9.22  0  
SubCatch_298  TS  78454  1.28  50  441.35  11.33  0  
SubCatch_308  TS  54701  2.56  50  805.23  8.34  0  
SubCatch_319  TS  77930  4.64  50  733.71  4.22  0  
SubCatch_320  TS  SubCatch_298  1.71  50  453.08  12.34  0  
SubCatch_328  TS  55821  2.45  50  618.97  7.82  0  
SubCatch_329  TS  54695  6.56  50  782.32  6.06  0  
SubCatch_332  TS  80681  2.51  50  735.44  9.47  0  
SubCatch_334  TS  64763  3.18  50  1334.34  6.1  0  
SubCatch_335  TS  54706  4.94  50  1486.45  6.09  0  
SubCatch_342  TS  56343  1.97  50  727.09  4.36  0  
SubCatch_347  TS  55808  2.24  50  525.74  7.31  0  
SubCatch_350  TS  56267  4.45  50  1066.33  9.32  0  
SubCatch_355  TS  56471  3.49  50  1034.84  10.09  0  
SubCatch_356  TS  55930  4.01  50  347.66  3.76  0  
SubCatch_368  TS  56307  2.6  50  591.58  10.73  0  
SubCatch_375  TS  55769  3.56  50  663.9  8.67  0  
SubCatch_382  TS  64734  4.2  50  1733.68  8.03  0  
SubCatch_399  TS  55909  7.88  50  1410.04  6.88  0  
SubCatch_400  TS  93766  5.16  50  1823.3  7.59  0  
SubCatch_402  TS  56412  3.41  50  1823.2  9.35  0  
SubCatch_414  TS  64562  4.96  50  1384.56  11.81  0  
SubCatch_421  TS  SubCatch_375  5.34  50  1090.42  8.04  0  

[SUBAREAS]
;;Subcatchment   N-Imperv   N-Perv     S-Imperv   S-Perv     PctZero    RouteTo    PctRouted
;;-------------- ---------- ---------- ---------- ---------- ---------- ---------- ----------
SubCatch_128  0.01  0.1  2.54  2.54  25  OUTLET  100
SubCatch_129  0.01  0.1  2.54  2.54  25  OUTLET  100
SubCatch_131  0.01  0.1  2.54  2.54  25  OUTLET  100
SubCatch_132  0.01  0.1  2.54  2.54  25  OUTLET  100
SubCatch_133  0.01  0.1  2.54  2.54  25  OUTLET  100
SubCatch_149  0.01  0.1  2.54  2.54  25  OUTLET  100
SubCatch_157  0.01  0.1  2.54  2.54  25  OUTLET  100
SubCatch_162  0.01  0.1  2.54  2.54  25  OUTLET  100
SubCatch_168  0.01  0.1  2.54  2.54  25  OUTLET  100
SubCatch_170  0.01  0.1  2.54  2.54  25  OUTLET  100
SubCatch_176  0.01  0.1  2.54  2.54  25  OUTLET  100
SubCatch_180  0.01  0.1  2.54  2.54  25  OUTLET  100
SubCatch_184  0.01  0.1  2.54  2.54  25  OUTLET  100
SubCatch_186  0.01  0.1  2.54  2.54  25  OUTLET  100
SubCatch_202  0.01  0.1  2.54  2.54  25  OUTLET  100
SubCatch_204  0.01  0.1  2.54  2.54  25  OUTLET  100
SubCatch_213  0.01  0.1  2.54  2.54  25  OUTLET  100
SubCatch_214  0.01  0.1  2.54  2.54  25  OUTLET  100
SubCatch_217  0.01  0.1  2.54  2.54  25  OUTLET  100
SubCatch_222  0.01  0.1  2.54  2.54  25  OUTLET  100
SubCatch_227  0.01  0.1  2.54  2.54  25  OUTLET  100
SubCatch_231  0.01  0.1  2.54  2.54  25  OUTLET  100
SubCatch_245  0.01  0.1  2.54  2.54  25  OUTLET  100
SubCatch_246  0.01  0.1  2.54  2.54  25  OUTLET  100
SubCatch_262  0.01  0.1  2.54  2.54  25  OUTLET  100
SubCatch_268  0.01  0.1  2.54  2.54  25  OUTLET  100
SubCatch_269  0.01  0.1  2.54  2.54  25  OUTLET  100
SubCatch_273  0.01  0.1  2.54  2.54  25  OUTLET  100
SubCatch_277  0.01  0.1  2.54  2.54  25  OUTLET  100